
  EPA STORM WATER MANAGEMENT MODEL - VERSION 5.2 (Build 5.2.4)
  PYSWMM TOOLKIT API - VERSION v1.0 (2026-02-26)
  ------------------------------------------------------------

  
  ERROR 205: invalid keyword QUALITY at line 307 of [REPORT] section:
  QUALITY    ALL
