
  EPA STORM WATER MANAGEMENT MODEL - VERSION 5.2 (Build 5.2.4)
  PYSWMM TOOLKIT API - VERSION v1.0 (2026-02-26)
  ------------------------------------------------------------

  
  ERROR 205: invalid keyword DIRECT at line 241 of [INFLOW] section:
  J4               CONTAM           Contam_J4        DIRECT   1.0      1.0
