
  EPA STORM WATER MANAGEMENT MODEL - VERSION 5.2 (Build 5.2.4)
  PYSWMM TOOLKIT API - VERSION v1.0 (2026-02-26)
  ------------------------------------------------------------

  SWMM Example 8 - Combined Sewer System 
  Replicated from EPA SWMM Applications Manual 
  For research use: Hybrid AI sensor placement project 

  Analysis begun on:  Sat Apr  4 20:42:25 2026
  Analysis ended on:  Sat Apr  4 20:42:25 2026
  Total elapsed time: < 1 sec